5934-refined.POSCAR.vasp
---
# generated using pymatgen
data_Ag58O7
_symmetry_space_group_name_H-M   'P 1'
_cell_length_a   11.45191956
_cell_length_b   11.45191956
_cell_length_c   28.62980080
_cell_angle_alpha   120.00000763
_cell_angle_beta   120.00000763
_cell_angle_gamma   59.99999619
_symmetry_Int_Tables_number   1
_chemical_formula_structural   Ag58O7
_chemical_formula_sum   'Ag58 O7'
_cell_volume   2654.97137552
_cell_formula_units_Z   1
loop_
 _symmetry_equiv_pos_site_id
 _symmetry_equiv_pos_as_xyz
  1  'x, y, z'
loop_
 _atom_site_type_symbol
 _atom_site_label
 _atom_site_symmetry_multiplicity
 _atom_site_fract_x
 _atom_site_fract_y
 _atom_site_fract_z
 _atom_site_occupancy
  Ag  Ag1  1  0.001035  0.001035  0.051291  1
  Ag  Ag2  1  0.001010  0.251060  0.051296  1
  Ag  Ag3  1  0.001023  0.501067  0.051292  1
  Ag  Ag4  1  0.001029  0.751046  0.051283  1
  Ag  Ag5  1  0.251060  0.001010  0.051296  1
  Ag  Ag6  1  0.251066  0.251066  0.051298  1
  Ag  Ag7  1  0.251060  0.501086  0.051318  1
  Ag  Ag8  1  0.251071  0.751024  0.051320  1
  Ag  Ag9  1  0.501067  0.001023  0.051292  1
  Ag  Ag10  1  0.501086  0.251060  0.051318  1
  Ag  Ag11  1  0.501090  0.501090  0.051343  1
  Ag  Ag12  1  0.501099  0.751034  0.051323  1
  Ag  Ag13  1  0.751046  0.001029  0.051283  1
  Ag  Ag14  1  0.751024  0.251071  0.051320  1
  Ag  Ag15  1  0.751034  0.501099  0.051323  1
  Ag  Ag16  1  0.751031  0.751031  0.051268  1
  Ag  Ag17  1  0.001064  0.000870  0.150759  1
  Ag  Ag18  1  0.999382  0.251309  0.149945  1
  Ag  Ag19  1  0.999237  0.502328  0.151488  1
  Ag  Ag20  1  0.999673  0.751236  0.150382  1
  Ag  Ag21  1  0.251750  0.000788  0.151177  1
  Ag  Ag22  1  0.248143  0.254080  0.150070  1
  Ag  Ag23  1  0.252341  0.502167  0.151381  1
  Ag  Ag24  1  0.249434  0.753418  0.150941  1
  Ag  Ag25  1  0.500219  0.000660  0.151184  1
  Ag  Ag26  1  0.499247  0.251219  0.149910  1
  Ag  Ag27  1  0.502095  0.502615  0.152389  1
  Ag  Ag28  1  0.500632  0.750900  0.150979  1
  Ag  Ag29  1  0.749669  0.000737  0.150763  1
  Ag  Ag30  1  0.749024  0.252174  0.150057  1
  Ag  Ag31  1  0.751709  0.502623  0.152509  1
  Ag  Ag32  1  0.749404  0.753493  0.151107  1
  Ag  Ag33  1  0.002112  0.997574  0.250794  1
  Ag  Ag34  1  0.001703  0.246191  0.247129  1
  Ag  Ag35  1  0.003813  0.502558  0.251560  1
  Ag  Ag36  1  0.996387  0.752858  0.249569  1
  Ag  Ag37  1  0.250147  0.005163  0.251090  1
  Ag  Ag38  1  0.250462  0.250823  0.247238  1
  Ag  Ag39  1  0.248926  0.506892  0.251700  1
  Ag  Ag40  1  0.249076  0.752643  0.249326  1
  Ag  Ag41  1  0.514498  0.992905  0.355555  1
  Ag  Ag42  1  0.492565  0.250842  0.247405  1
  Ag  Ag43  1  0.497818  0.502401  0.251474  1
  Ag  Ag44  1  0.496767  0.753299  0.249546  1
  Ag  Ag45  1  0.747359  0.005343  0.251371  1
  Ag  Ag46  1  0.745729  0.246285  0.247225  1
  Ag  Ag47  1  0.748863  0.513964  0.254586  1
  Ag  Ag48  1  0.908156  0.697443  0.356761  1
  Ag  Ag49  1  0.206105  0.340807  0.348867  1
  Ag  Ag50  1  0.163751  0.699302  0.356283  1
  Ag  Ag51  1  0.748286  0.753511  0.249549  1
  Ag  Ag52  1  0.013206  0.994931  0.355593  1
  Ag  Ag53  1  0.702192  0.339929  0.348964  1
  Ag  Ag54  1  0.664033  0.696070  0.356813  1
  Ag  Ag55  1  0.756653  0.992981  0.355698  1
  Ag  Ag56  1  0.404743  0.698930  0.356084  1
  Ag  Ag57  1  0.255962  0.995310  0.355255  1
  Ag  Ag58  1  0.500784  0.003366  0.252051  1
  O  O59  1  0.229633  0.868253  0.380290  1
  O  O60  1  0.103738  0.548974  0.349607  1
  O  O61  1  0.730538  0.864566  0.380287  1
  O  O62  1  0.309474  0.134525  0.350211  1
  O  O63  1  0.808059  0.134226  0.350758  1
  O  O64  1  0.598460  0.547957  0.349572  1
  O  O65  1  0.880841  0.370829  0.302684  1

